<?xml version="1.0" encoding="UTF-8"?>

<!-- generated on 2022-05-18 19:36:49 by Eclipse SUMO sumo Version 1.11.0
<additional-files value="bologna.add.xml"/>
-->

<configuration xmlns:xsi="http://www.w3.org/2001/XMLSchema-instance" xsi:noNamespaceSchemaLocation="http://sumo.dlr.de/xsd/sumoConfiguration.xsd">

    <input>
        <net-file value="bologna.net.xml"/>
        <route-files value="bologna.rou.xml"/>
    </input>

    <time>
        <begin value="0.0"/>
        <end value="3600.0"/>
    </time>

    <processing>
        <route-steps value="200"/>
        <no-internal-links value="false"/>
        <time-to-teleport value="300"/>
        <time-to-teleport.highways value="0"/>
        <eager-insert value="false"/>
    </processing>

    <report>
        <no-step-log value="true"/>
    </report>

    <random_number>
        <random value="false"/>
    </random_number>

</configuration>
