<?xml version="1.0" encoding="UTF-8"?>

<!-- generated on 2022-05-07 16:06:46 by Eclipse SUMO netedit Version 1.11.0
<configuration xmlns:xsi="http://www.w3.org/2001/XMLSchema-instance" xsi:noNamespaceSchemaLocation="http://sumo.dlr.de/xsd/netconvertConfiguration.xsd">

    <input>
        <sumo-net-file value="/home/veins/Documents/Mobile-Systems/osm.net.xml"/>
    </input>

    <output>
        <output-file value="/home/veins/Documents/Mobile-Systems/osm.net.xml"/>
        <output.street-names value="true"/>
    </output>

    <processing>
        <geometry.min-radius.fix.railways value="false"/>
        <geometry.max-grade.fix value="false"/>
        <offset.disable-normalization value="true"/>
        <lefthand value="false"/>
    </processing>

    <junctions>
        <no-turnarounds value="true"/>
        <junctions.corner-detail value="5"/>
        <junctions.limit-turn-speed value="5.5"/>
        <rectangular-lane-cut value="false"/>
    </junctions>

    <pedestrian>
        <walkingareas value="false"/>
    </pedestrian>

    <report>
        <aggregate-warnings value="5"/>
    </report>

</configuration>
-->

<net version="1.9" junctionCornerDetail="5" limitTurnSpeed="5.50" xmlns:xsi="http://www.w3.org/2001/XMLSchema-instance" xsi:noNamespaceSchemaLocation="http://sumo.dlr.de/xsd/net_file.xsd">

    <location netOffset="-683729.35,-4928404.96" convBoundary="0.00,0.00,2284.69,1368.16" origBoundary="11.247567,44.476486,11.344414,44.501969" projParameter="+proj=utm +zone=32 +ellps=WGS84 +datum=WGS84 +units=m +no_defs"/>

    <type id="highway.bridleway" priority="1" numLanes="1" speed="2.78" allow="pedestrian" oneway="1" width="2.00"/>
    <type id="highway.bus_guideway" priority="1" numLanes="1" speed="27.78" allow="bus" oneway="1"/>
    <type id="highway.cycleway" priority="1" numLanes="1" speed="8.33" allow="bicycle" oneway="0" width="1.00"/>
    <type id="highway.footway" priority="1" numLanes="1" speed="2.78" allow="pedestrian" oneway="1" width="2.00"/>
    <type id="highway.ford" priority="1" numLanes="1" speed="2.78" allow="army" oneway="0"/>
    <type id="highway.living_street" priority="2" numLanes="1" speed="2.78" disallow="tram rail_urban rail rail_electric rail_fast ship" oneway="0"/>
    <type id="highway.motorway" priority="14" numLanes="2" speed="39.44" allow="private emergency authority army vip passenger hov taxi bus coach delivery truck trailer motorcycle evehicle custom1 custom2" oneway="1"/>
    <type id="highway.motorway_link" priority="9" numLanes="1" speed="22.22" allow="private emergency authority army vip passenger hov taxi bus coach delivery truck trailer motorcycle evehicle custom1 custom2" oneway="1"/>
    <type id="highway.path" priority="1" numLanes="1" speed="2.78" allow="pedestrian bicycle" oneway="0" width="2.00"/>
    <type id="highway.pedestrian" priority="1" numLanes="1" speed="2.78" allow="pedestrian" oneway="1" width="2.00"/>
    <type id="highway.primary" priority="12" numLanes="2" speed="27.78" disallow="tram rail_urban rail rail_electric rail_fast ship" oneway="0"/>
    <type id="highway.primary_link" priority="7" numLanes="1" speed="22.22" disallow="tram rail_urban rail rail_electric rail_fast ship" oneway="0"/>
    <type id="highway.raceway" priority="15" numLanes="2" speed="83.33" allow="vip" oneway="0"/>
    <type id="highway.residential" priority="3" numLanes="1" speed="13.89" disallow="tram rail_urban rail rail_electric rail_fast ship" oneway="0"/>
    <type id="highway.secondary" priority="11" numLanes="1" speed="27.78" disallow="tram rail_urban rail rail_electric rail_fast ship" oneway="0"/>
    <type id="highway.secondary_link" priority="6" numLanes="1" speed="22.22" disallow="tram rail_urban rail rail_electric rail_fast ship" oneway="0"/>
    <type id="highway.service" priority="1" numLanes="1" speed="5.56" allow="pedestrian delivery bicycle" oneway="0"/>
    <type id="highway.stairs" priority="1" numLanes="1" speed="1.39" allow="pedestrian" oneway="1" width="2.00"/>
    <type id="highway.step" priority="1" numLanes="1" speed="1.39" allow="pedestrian" oneway="1" width="2.00"/>
    <type id="highway.steps" priority="1" numLanes="1" speed="1.39" allow="pedestrian" oneway="1" width="2.00"/>
    <type id="highway.tertiary" priority="10" numLanes="1" speed="22.22" disallow="tram rail_urban rail rail_electric rail_fast ship" oneway="0"/>
    <type id="highway.tertiary_link" priority="5" numLanes="1" speed="22.22" disallow="tram rail_urban rail rail_electric rail_fast ship" oneway="0"/>
    <type id="highway.track" priority="1" numLanes="1" speed="5.56" allow="pedestrian motorcycle moped bicycle" oneway="0"/>
    <type id="highway.trunk" priority="13" numLanes="2" speed="27.78" disallow="pedestrian bicycle tram rail_urban rail rail_electric rail_fast ship" oneway="0"/>
    <type id="highway.trunk_link" priority="8" numLanes="1" speed="22.22" disallow="pedestrian bicycle tram rail_urban rail rail_electric rail_fast ship" oneway="0"/>
    <type id="highway.unclassified" priority="4" numLanes="1" speed="13.89" disallow="tram rail_urban rail rail_electric rail_fast ship" oneway="0"/>
    <type id="highway.unsurfaced" priority="1" numLanes="1" speed="8.33" disallow="tram rail_urban rail rail_electric rail_fast ship" oneway="0"/>
    <type id="railway.highspeed" priority="21" numLanes="1" speed="69.44" allow="rail_fast" oneway="1"/>
    <type id="railway.light_rail" priority="19" numLanes="1" speed="27.78" allow="rail_urban" oneway="1"/>
    <type id="railway.preserved" priority="16" numLanes="1" speed="27.78" allow="rail" oneway="1"/>
    <type id="railway.rail" priority="20" numLanes="1" speed="44.44" allow="rail" oneway="1"/>
    <type id="railway.subway" priority="18" numLanes="1" speed="27.78" allow="rail_urban" oneway="1"/>
    <type id="railway.tram" priority="17" numLanes="1" speed="13.89" allow="tram" oneway="1"/>

    <edge id=":1195439202_0" function="internal">
        <lane id=":1195439202_0_0" index="0" disallow="tram rail_urban rail rail_electric rail_fast ship" speed="3.65" length="4.67" shape="432.72,-0.59 433.91,-1.41 434.80,-1.49 435.40,-0.82 435.70,0.59"/>
    </edge>
    <edge id=":1203429304_0" function="internal">
        <lane id=":1203429304_0_0" index="0" disallow="tram rail_urban rail rail_electric rail_fast ship" speed="3.65" length="4.67" shape="927.92,1188.82 927.30,1190.12 926.57,1190.63 925.72,1190.35 924.76,1189.28"/>
    </edge>
    <edge id=":1336557126_0" function="internal">
        <lane id=":1336557126_0_0" index="0" disallow="tram rail_urban rail rail_electric rail_fast ship" speed="19.21" length="9.30" shape="302.21,1022.30 304.34,1024.07 305.79,1025.37 307.38,1026.36 309.95,1027.20"/>
    </edge>
    <edge id=":1374484818_0" function="internal">
        <lane id=":1374484818_0_0" index="0" disallow="tram rail_urban rail rail_electric rail_fast ship" speed="2.78" length="4.67" shape="829.55,309.82 829.81,308.40 830.39,307.72 831.28,307.77 832.49,308.56"/>
    </edge>
    <edge id=":1374484829_0" function="internal">
        <lane id=":1374484829_0_0" index="0" disallow="tram rail_urban rail rail_electric rail_fast ship" speed="2.78" length="7.57" shape="904.08,389.61 903.13,387.77 901.94,386.32 900.49,385.26 898.79,384.57"/>
    </edge>
    <edge id=":1374484829_1" function="internal">
        <lane id=":1374484829_1_0" index="0" disallow="tram rail_urban rail rail_electric rail_fast ship" speed="8.13" length="11.04" shape="904.08,389.61 903.34,386.79 903.49,384.19 904.54,381.80 906.49,379.64"/>
    </edge>
    <edge id=":1374484829_2" function="internal">
        <lane id=":1374484829_2_0" index="0" disallow="tram rail_urban rail rail_electric rail_fast ship" speed="2.78" length="4.67" shape="904.08,389.61 904.37,388.20 904.96,387.52 905.85,387.59 907.04,388.41"/>
    </edge>
    <edge id=":1374484829_3" function="internal">
        <lane id=":1374484829_3_0" index="0" disallow="tram rail_urban rail rail_electric rail_fast ship" speed="6.61" length="7.02" shape="908.58,382.06 907.34,383.44 906.67,384.96 906.57,386.61 907.04,388.41"/>
    </edge>
    <edge id=":1374484829_4" function="internal">
        <lane id=":1374484829_4_0" index="0" disallow="tram rail_urban rail rail_electric rail_fast ship" speed="8.34" length="10.53" shape="908.58,382.06 906.26,383.69 903.85,384.65 901.37,384.95 898.79,384.57"/>
    </edge>
    <edge id=":1374484829_5" function="internal">
        <lane id=":1374484829_5_0" index="0" disallow="tram rail_urban rail rail_electric rail_fast ship" speed="3.65" length="4.67" shape="908.58,382.06 907.15,382.24 906.32,381.89 906.10,381.03 906.49,379.64"/>
    </edge>
    <edge id=":1374484829_6" function="internal">
        <lane id=":1374484829_6_0" index="0" disallow="tram rail_urban rail rail_electric rail_fast ship" speed="7.84" length="7.40" shape="899.63,381.48 901.40,381.73 903.14,381.51 904.83,380.81 906.49,379.64"/>
    </edge>
    <edge id=":1374484829_7" function="internal">
        <lane id=":1374484829_7_0" index="0" disallow="tram rail_urban rail rail_electric rail_fast ship" speed="2.78" length="10.52" shape="899.63,381.48 902.03,382.44 904.07,383.91 905.74,385.90 907.04,388.41"/>
    </edge>
    <edge id=":1374484829_8" function="internal">
        <lane id=":1374484829_8_0" index="0" disallow="tram rail_urban rail rail_electric rail_fast ship" speed="2.78" length="4.67" shape="899.63,381.48 900.58,382.57 900.76,383.45 900.16,384.11 898.79,384.57"/>
    </edge>
    <edge id=":1374484833_0" function="internal">
        <lane id=":1374484833_0_0" index="0" disallow="tram rail_urban rail rail_electric rail_fast ship" speed="3.65" length="4.67" shape="1024.86,413.85 1023.58,413.19 1023.09,412.44 1023.40,411.60 1024.50,410.67"/>
    </edge>
    <edge id=":1374484837_0" function="internal">
        <lane id=":1374484837_0_0" index="0" disallow="tram rail_urban rail rail_electric rail_fast ship" speed="6.64" length="9.22" shape="1092.93,456.23 1092.20,453.87 1090.85,452.29 1088.89,451.49 1086.33,451.47"/>
    </edge>
    <edge id=":1374484837_1" function="internal">
        <lane id=":1374484837_1_0" index="0" disallow="tram rail_urban rail rail_electric rail_fast ship" speed="13.89" length="14.42" shape="1092.93,456.23 1090.60,441.99"/>
    </edge>
    <edge id=":1374484837_2" function="internal">
        <lane id=":1374484837_2_0" index="0" disallow="tram rail_urban rail rail_electric rail_fast ship" speed="3.65" length="2.34" shape="1092.93,456.23 1093.54,454.92 1094.26,454.40"/>
    </edge>
    <edge id=":1374484837_9" function="internal">
        <lane id=":1374484837_9_0" index="0" disallow="tram rail_urban rail rail_electric rail_fast ship" speed="3.65" length="2.34" shape="1094.26,454.40 1095.12,454.67 1096.09,455.73"/>
    </edge>
    <edge id=":1374484837_3" function="internal">
        <lane id=":1374484837_3_0" index="0" disallow="tram rail_urban rail rail_electric rail_fast ship" speed="13.89" length="14.46" shape="1093.76,441.45 1096.09,455.73"/>
    </edge>
    <edge id=":1374484837_4" function="internal">
        <lane id=":1374484837_4_0" index="0" disallow="tram rail_urban rail rail_electric rail_fast ship" speed="7.93" length="6.00" shape="1093.76,441.45 1093.86,445.41 1093.09,447.31"/>
    </edge>
    <edge id=":1374484837_5" function="internal">
        <lane id=":1374484837_5_0" index="0" disallow="tram rail_urban rail rail_electric rail_fast ship" speed="3.65" length="2.34" shape="1093.76,441.45 1093.17,442.77 1092.45,443.30"/>
    </edge>
    <edge id=":1374484837_10" function="internal">
        <lane id=":1374484837_10_0" index="0" disallow="tram rail_urban rail rail_electric rail_fast ship" speed="7.93" length="8.35" shape="1093.09,447.31 1092.65,448.40 1090.14,450.42 1086.33,451.47"/>
    </edge>
    <edge id=":1374484837_11" function="internal">
        <lane id=":1374484837_11_0" index="0" disallow="tram rail_urban rail rail_electric rail_fast ship" speed="3.65" length="2.34" shape="1092.45,443.30 1091.59,443.04 1090.60,441.99"/>
    </edge>
    <edge id=":1374484837_6" function="internal">
        <lane id=":1374484837_6_0" index="0" disallow="tram rail_urban rail rail_electric rail_fast ship" speed="6.41" length="9.04" shape="1085.93,448.29 1088.33,447.63 1089.91,446.36 1090.67,444.48 1090.60,441.99"/>
    </edge>
    <edge id=":1374484837_7" function="internal">
        <lane id=":1374484837_7_0" index="0" disallow="tram rail_urban rail rail_electric rail_fast ship" speed="8.11" length="14.27" shape="1085.93,448.29 1089.87,448.34 1092.88,449.59 1094.95,452.06 1096.09,455.73"/>
    </edge>
    <edge id=":1374484837_8" function="internal">
        <lane id=":1374484837_8_0" index="0" disallow="tram rail_urban rail rail_electric rail_fast ship" speed="3.65" length="4.67" shape="1085.93,448.29 1087.22,448.93 1087.71,449.68 1087.42,450.52 1086.33,451.47"/>
    </edge>
    <edge id=":1374484841_0" function="internal">
        <lane id=":1374484841_0_0" index="0" disallow="tram rail_urban rail rail_electric rail_fast ship" speed="3.65" length="4.67" shape="1033.68,458.10 1032.39,457.45 1031.89,456.71 1032.19,455.87 1033.28,454.92"/>
    </edge>
    <edge id=":1374484849_0" function="internal">
        <lane id=":1374484849_0_0" index="0" disallow="tram rail_urban rail rail_electric rail_fast ship" speed="13.89" length="9.48" shape="914.70,504.81 905.80,501.69"/>
        <lane id=":1374484849_0_1" index="1" disallow="tram rail_urban rail rail_electric rail_fast ship" speed="13.89" length="9.48" shape="915.80,501.80 906.82,498.66"/>
    </edge>
    <edge id=":1374484849_2" function="internal">
        <lane id=":1374484849_2_0" index="0" disallow="tram rail_urban rail rail_electric rail_fast ship" speed="6.83" length="8.21" shape="915.80,501.80 913.34,500.68 911.64,499.38 910.70,497.93 910.51,496.31"/>
    </edge>
    <edge id=":1374484849_3" function="internal">
        <lane id=":1374484849_3_0" index="0" disallow="tram rail_urban rail rail_electric rail_fast ship" speed="5.90" length="8.41" shape="913.69,496.66 913.08,498.34 911.74,499.24 909.65,499.34 906.82,498.66"/>
    </edge>
    <edge id=":1374484849_4" function="internal">
        <lane id=":1374484849_4_0" index="0" disallow="tram rail_urban rail rail_electric rail_fast ship" speed="2.78" length="4.67" shape="913.69,496.66 912.76,497.77 911.92,498.07 911.17,497.59 910.51,496.31"/>
    </edge>
    <edge id=":1374484852_0" function="internal">
        <lane id=":1374484852_0_0" index="0" disallow="tram rail_urban rail rail_electric rail_fast ship" speed="3.65" length="4.67" shape="870.21,1067.99 870.65,1066.62 871.31,1066.01 872.18,1066.17 873.29,1067.11"/>
    </edge>
    <edge id=":1552144862_0" function="internal">
        <lane id=":1552144862_0_0" index="0" disallow="tram rail_urban rail rail_electric rail_fast ship" speed="3.65" length="4.67" shape="1199.98,954.27 1201.29,954.88 1201.80,955.61 1201.53,956.46 1200.46,957.43"/>
    </edge>
    <edge id=":1552144863_0" function="internal">
        <lane id=":1552144863_0_0" index="0" disallow="tram rail_urban rail rail_electric rail_fast ship" speed="8.33" length="9.24" shape="1148.92,968.35 1148.58,965.63 1148.31,963.77 1147.94,961.93 1147.33,959.26"/>
    </edge>
    <edge id=":1552144863_1" function="internal">
        <lane id=":1552144863_1_0" index="0" disallow="tram rail_urban rail rail_electric rail_fast ship" speed="6.11" length="7.67" shape="1148.92,968.35 1148.78,965.61 1149.09,963.58 1149.86,962.28 1151.09,961.70"/>
    </edge>
    <edge id=":1552144863_2" function="internal">
        <lane id=":1552144863_2_0" index="0" disallow="tram rail_urban rail rail_electric rail_fast ship" speed="6.21" length="7.65" shape="1151.57,964.86 1150.24,964.67 1149.09,963.68 1148.12,961.87 1147.33,959.26"/>
    </edge>
    <edge id=":1552144863_3" function="internal">
        <lane id=":1552144863_3_0" index="0" disallow="tram rail_urban rail rail_electric rail_fast ship" speed="3.65" length="4.67" shape="1151.57,964.86 1150.27,964.25 1149.75,963.52 1150.03,962.67 1151.09,961.70"/>
    </edge>
    <edge id=":1552144864_0" function="internal">
        <lane id=":1552144864_0_0" index="0" disallow="tram rail_urban rail rail_electric rail_fast ship" speed="3.65" length="4.67" shape="1200.62,995.12 1201.95,995.68 1202.49,996.39 1202.25,997.25 1201.22,998.26"/>
    </edge>
    <edge id=":1552144865_0" function="internal">
        <lane id=":1552144865_0_0" index="0" disallow="tram rail_urban rail rail_electric rail_fast ship" speed="8.33" length="9.43" shape="1154.12,1010.39 1152.92,1001.04"/>
    </edge>
    <edge id=":1552144865_1" function="internal">
        <lane id=":1552144865_1_0" index="0" disallow="tram rail_urban rail rail_electric rail_fast ship" speed="6.25" length="7.88" shape="1154.12,1010.39 1153.95,1007.66 1154.29,1005.62 1155.12,1004.27 1156.46,1003.62"/>
    </edge>
    <edge id=":1552144865_2" function="internal">
        <lane id=":1552144865_2_0" index="0" disallow="tram rail_urban rail rail_electric rail_fast ship" speed="6.01" length="7.95" shape="1157.07,1006.76 1155.54,1006.65 1154.34,1005.66 1153.47,1003.79 1152.92,1001.04"/>
    </edge>
    <edge id=":1552144865_3" function="internal">
        <lane id=":1552144865_3_0" index="0" disallow="tram rail_urban rail rail_electric rail_fast ship" speed="3.65" length="4.67" shape="1157.07,1006.76 1155.74,1006.20 1155.19,1005.49 1155.43,1004.63 1156.46,1003.62"/>
    </edge>
    <edge id=":1630441197_0" function="internal">
        <lane id=":1630441197_0_0" index="0" disallow="tram rail_urban rail rail_electric rail_fast ship" speed="9.08" length="5.70" shape="288.30,1024.81 286.60,1024.74 285.36,1024.64 284.24,1024.85 282.88,1025.72"/>
    </edge>
    <edge id=":1630441197_1" function="internal">
        <lane id=":1630441197_1_0" index="0" disallow="tram rail_urban rail rail_electric rail_fast ship" speed="11.11" length="5.69" shape="286.17,1020.85 285.42,1022.46 284.89,1023.57 284.17,1024.54 282.88,1025.72"/>
        <lane id=":1630441197_1_1" index="1" disallow="tram rail_urban rail rail_electric rail_fast ship" speed="11.11" length="5.69" shape="283.65,1018.72 283.00,1020.20 282.57,1021.25 281.98,1022.16 280.84,1023.25"/>
    </edge>
    <edge id=":1630441215_0" function="internal">
        <lane id=":1630441215_0_0" index="0" disallow="tram rail_urban rail rail_electric rail_fast ship" speed="16.66" length="10.66" shape="272.62,1036.52 270.69,1034.16 269.13,1032.61 267.27,1031.37 264.41,1029.97"/>
    </edge>
    <edge id=":1630441215_1" function="internal">
        <lane id=":1630441215_1_0" index="0" disallow="tram rail_urban rail rail_electric rail_fast ship" speed="11.11" length="10.56" shape="275.33,1030.03 272.11,1030.99 269.76,1031.43 267.47,1031.16 264.41,1029.97"/>
        <lane id=":1630441215_1_1" index="1" disallow="tram rail_urban rail rail_electric rail_fast ship" speed="11.09" length="10.56" shape="275.16,1026.74 272.39,1027.63 270.36,1028.14 268.39,1028.03 265.75,1027.07"/>
    </edge>
    <edge id=":1725487971_0" function="internal">
        <lane id=":1725487971_0_0" index="0" disallow="tram rail_urban rail rail_electric rail_fast ship" speed="3.65" length="4.67" shape="39.45,502.94 38.19,502.23 37.73,501.46 38.07,500.63 39.21,499.74"/>
    </edge>
    <edge id=":1754652902_0" function="internal">
        <lane id=":1754652902_0_0" index="0" disallow="tram rail_urban rail rail_electric rail_fast ship" speed="3.65" length="4.67" shape="1083.78,930.59 1085.15,931.04 1085.75,931.70 1085.58,932.58 1084.64,933.67"/>
    </edge>
    <edge id=":1754652907_0" function="internal">
        <lane id=":1754652907_0_0" index="0" disallow="tram rail_urban rail rail_electric rail_fast ship" speed="8.33" length="9.42" shape="989.54,965.18 986.01,956.45"/>
    </edge>
    <edge id=":1754652907_1" function="internal">
        <lane id=":1754652907_1_0" index="0" disallow="tram rail_urban rail rail_electric rail_fast ship" speed="6.01" length="7.96" shape="989.54,965.18 988.69,962.51 988.55,960.45 989.12,959.00 990.41,958.16"/>
    </edge>
    <edge id=":1754652907_2" function="internal">
        <lane id=":1754652907_2_0" index="0" disallow="tram rail_urban rail rail_electric rail_fast ship" speed="6.28" length="7.88" shape="991.40,961.20 989.91,961.28 988.52,960.51 987.21,958.90 986.01,956.45"/>
    </edge>
    <edge id=":1754652907_3" function="internal">
        <lane id=":1754652907_3_0" index="0" disallow="tram rail_urban rail rail_electric rail_fast ship" speed="3.65" length="4.67" shape="991.40,961.20 990.01,960.81 989.38,960.17 989.51,959.29 990.41,958.16"/>
    </edge>
    <edge id=":1754652911_0" function="internal">
        <lane id=":1754652911_0_0" index="0" disallow="tram rail_urban rail rail_electric rail_fast ship" speed="3.65" length="4.67" shape="1072.75,983.94 1074.15,984.29 1074.80,984.91 1074.69,985.80 1073.83,986.96"/>
    </edge>
    <edge id=":1754652919_0" function="internal">
        <lane id=":1754652919_0_0" index="0" disallow="tram rail_urban rail rail_electric rail_fast ship" speed="8.33" length="9.37" shape="1009.35,1014.15 1005.89,1005.43"/>
    </edge>
    <edge id=":1754652919_1" function="internal">
        <lane id=":1754652919_1_0" index="0" disallow="tram rail_urban rail rail_electric rail_fast ship" speed="6.08" length="7.77" shape="1009.35,1014.15 1008.54,1011.51 1008.37,1009.46 1008.85,1008.01 1009.99,1007.15"/>
    </edge>
    <edge id=":1754652919_2" function="internal">
        <lane id=":1754652919_2_0" index="0" disallow="tram rail_urban rail rail_electric rail_fast ship" speed="6.12" length="7.75" shape="1011.13,1010.14 1009.72,1010.26 1008.38,1009.52 1007.11,1007.91 1005.89,1005.43"/>
    </edge>
    <edge id=":1754652919_3" function="internal">
        <lane id=":1754652919_3_0" index="0" disallow="tram rail_urban rail rail_electric rail_fast ship" speed="3.65" length="4.67" shape="1011.13,1010.14 1009.72,1009.82 1009.06,1009.22 1009.15,1008.33 1009.99,1007.15"/>
    </edge>
    <edge id=":1825317811_0" function="internal">
        <lane id=":1825317811_0_0" index="0" disallow="tram rail_urban rail rail_electric rail_fast ship" speed="3.65" length="4.67" shape="689.11,140.59 689.59,139.23 690.26,138.64 691.14,138.83 692.21,139.79"/>
    </edge>
    <edge id=":1825438244_0" function="internal">
        <lane id=":1825438244_0_0" index="0" disallow="tram rail_urban rail rail_electric rail_fast ship" speed="6.48" length="9.03" shape="1088.79,347.29 1086.92,345.66 1084.99,345.02 1082.98,345.37 1080.90,346.73"/>
    </edge>
    <edge id=":1825438244_1" function="internal">
        <lane id=":1825438244_1_0" index="0" disallow="tram rail_urban rail rail_electric rail_fast ship" speed="8.33" length="14.41" shape="1088.79,347.29 1079.38,336.37"/>
    </edge>
    <edge id=":1825438244_2" function="internal">
        <lane id=":1825438244_2_0" index="0" disallow="tram rail_urban rail rail_electric rail_fast ship" speed="6.53" length="9.07" shape="1078.80,344.32 1080.43,342.43 1081.07,340.47 1080.72,338.45 1079.38,336.37"/>
    </edge>
    <edge id=":1825438244_3" function="internal">
        <lane id=":1825438244_3_0" index="0" disallow="tram rail_urban rail rail_electric rail_fast ship" speed="3.65" length="4.67" shape="1078.80,344.32 1080.23,344.13 1081.05,344.47 1081.28,345.33 1080.90,346.73"/>
    </edge>
    <edge id=":1825438254_0" function="internal">
        <lane id=":1825438254_0_0" index="0" disallow="tram rail_urban rail rail_electric rail_fast ship" speed="3.65" length="4.67" shape="938.52,353.37 937.10,353.15 936.40,352.59 936.43,351.70 937.18,350.47"/>
    </edge>
    <edge id=":1825438257_0" function="internal">
        <lane id=":1825438257_0_0" index="0" disallow="tram rail_urban rail rail_electric rail_fast ship" speed="3.65" length="4.67" shape="920.11,367.90 921.54,367.72 922.36,368.07 922.58,368.93 922.19,370.32"/>
    </edge>
    <edge id=":2203010771_0" function="internal">
        <lane id=":2203010771_0_0" index="0" disallow="tram rail_urban rail rail_electric rail_fast ship" speed="11.11" length="0.30" shape="1337.73,579.80 1337.69,580.10"/>
    </edge>
    <edge id=":23837911#1-AddedOnRampNode_0" function="internal">
        <lane id=":23837911#1-AddedOnRampNode_0_0" index="0" disallow="tram rail_urban rail rail_electric rail_fast ship" speed="27.78" length="8.00" shape="1579.00,500.31 1586.22,496.87"/>
        <lane id=":23837911#1-AddedOnRampNode_0_1" index="1" disallow="tram rail_urban rail rail_electric rail_fast ship" speed="27.78" length="8.00" shape="1580.37,503.20 1587.59,499.76"/>
        <lane id=":23837911#1-AddedOnRampNode_0_2" index="2" disallow="tram rail_urban rail rail_electric rail_fast ship" speed="27.78" length="8.00" shape="1581.74,506.09 1588.97,502.65"/>
    </edge>
    <edge id=":2390874376_0" function="internal">
        <lane id=":2390874376_0_0" index="0" disallow="tram rail_urban rail rail_electric rail_fast ship" speed="22.22" length="0.44" shape="289.41,1062.17 289.36,1062.05 289.34,1061.97 289.31,1061.88 289.27,1061.76"/>
    </edge>
    <edge id=":2390874376_1" function="internal">
        <lane id=":2390874376_1_0" index="0" disallow="tram rail_urban rail rail_electric rail_fast ship" speed="22.22" length="0.35" shape="292.14,1060.60 292.20,1060.69 292.24,1060.74 292.29,1060.80 292.33,1060.89"/>
    </edge>
    <edge id=":2390888379_0" function="internal">
        <lane id=":2390888379_0_0" index="0" disallow="tram rail_urban rail rail_electric rail_fast ship" speed="13.89" length="15.15" shape="985.19,821.95 981.63,820.70 978.13,819.21 974.62,817.73 971.04,816.56"/>
    </edge>
    <edge id=":2390888379_1" function="internal">
        <lane id=":2390888379_1_0" index="0" disallow="tram rail_urban rail rail_electric rail_fast ship" speed="10.56" length="3.39" shape="985.19,821.95 983.88,820.96 982.91,819.50"/>
    </edge>
    <edge id=":2390888379_2" function="internal">
        <lane id=":2390888379_2_0" index="0" disallow="tram rail_urban rail rail_electric rail_fast ship" speed="3.65" length="2.34" shape="985.19,821.95 984.26,820.85 984.09,819.97"/>
    </edge>
    <edge id=":2390888379_6" function="internal">
        <lane id=":2390888379_6_0" index="0" disallow="tram rail_urban rail rail_electric rail_fast ship" speed="10.56" length="10.08" shape="982.91,819.50 982.38,818.69 980.70,815.13 978.85,810.30"/>
    </edge>
    <edge id=":2390888379_7" function="internal">
        <lane id=":2390888379_7_0" index="0" disallow="tram rail_urban rail rail_electric rail_fast ship" speed="3.65" length="2.34" shape="984.09,819.97 984.69,819.31 986.07,818.87"/>
    </edge>
    <edge id=":2390888379_3" function="internal">
        <lane id=":2390888379_3_0" index="0" disallow="tram rail_urban rail rail_electric rail_fast ship" speed="5.72" length="11.99" shape="973.20,812.25 976.88,814.81 979.05,815.34 979.71,813.84 978.85,810.30"/>
    </edge>
    <edge id=":2390888379_4" function="internal">
        <lane id=":2390888379_4_0" index="0" disallow="tram rail_urban rail rail_electric rail_fast ship" speed="13.89" length="14.56" shape="973.20,812.25 976.18,814.42 979.29,816.22 982.57,817.70 986.07,818.87"/>
    </edge>
    <edge id=":2390888379_5" function="internal">
        <lane id=":2390888379_5_0" index="0" disallow="tram rail_urban rail rail_electric rail_fast ship" speed="5.67" length="6.40" shape="973.20,812.25 976.40,815.20 977.10,816.90 976.89,816.95"/>
    </edge>
    <edge id=":2390888379_8" function="internal">
        <lane id=":2390888379_8_0" index="0" disallow="tram rail_urban rail rail_electric rail_fast ship" speed="5.67" length="5.98" shape="976.89,816.95 975.32,817.35 971.04,816.56"/>
    </edge>
    <edge id=":2390888382_0" function="internal">
        <lane id=":2390888382_0_0" index="0" disallow="tram rail_urban rail rail_electric rail_fast ship" speed="3.65" length="4.67" shape="871.78,896.13 872.13,894.73 872.75,894.08 873.64,894.19 874.80,895.05"/>
    </edge>
    <edge id=":2390895850_0" function="internal">
        <lane id=":2390895850_0_0" index="0" disallow="tram rail_urban rail rail_electric rail_fast ship" speed="13.89" length="9.75" shape="927.93,817.60 926.48,815.12 925.19,813.57 923.97,811.99 922.71,809.42"/>
    </edge>
    <edge id=":2390895850_1" function="internal">
        <lane id=":2390895850_1_0" index="0" disallow="tram rail_urban rail rail_electric rail_fast ship" speed="6.37" length="4.89" shape="927.93,817.60 927.61,815.88 928.33,814.26 929.38,813.38"/>
    </edge>
    <edge id=":2390895850_4" function="internal">
        <lane id=":2390895850_4_0" index="0" disallow="tram rail_urban rail rail_electric rail_fast ship" speed="6.37" length="4.14" shape="929.38,813.38 930.12,812.75 932.96,811.34"/>
    </edge>
    <edge id=":2390895850_2" function="internal">
        <lane id=":2390895850_2_0" index="0" disallow="tram rail_urban rail rail_electric rail_fast ship" speed="6.48" length="9.02" shape="925.69,808.26 926.90,810.40 928.52,811.63 930.54,811.94 932.96,811.34"/>
    </edge>
    <edge id=":2390895850_3" function="internal">
        <lane id=":2390895850_3_0" index="0" disallow="tram rail_urban rail rail_electric rail_fast ship" speed="3.65" length="2.18" shape="925.69,808.26 925.38,809.67 924.88,810.22"/>
    </edge>
    <edge id=":2390895850_5" function="internal">
        <lane id=":2390895850_5_0" index="0" disallow="tram rail_urban rail rail_electric rail_fast ship" speed="3.65" length="2.49" shape="924.88,810.22 924.78,810.33 923.89,810.25 922.71,809.42"/>
    </edge>
    <edge id=":2408601276_0" function="internal">
        <lane id=":2408601276_0_0" index="0" disallow="tram rail_urban rail rail_electric rail_fast ship" speed="15.27" length="0.20" shape="56.18,511.81 56.19,511.75 56.19,511.71 56.19,511.67 56.19,511.61"/>
    </edge>
    <edge id=":2408601279_0" function="internal">
        <lane id=":2408601279_0_0" index="0" disallow="tram rail_urban rail rail_electric rail_fast ship" speed="11.11" length="0.30" shape="1221.44,568.17 1221.46,567.87"/>